@echo off

SET APPID=255710
SET STEAMLIBRARY=D:\Program Files\SteamLibrary

SET MODID=%1
SET SOLUTIONNAME=%2
SET TARGETFILENAME=%3

IF "%MODID%"=="" GOTO APPDATA
IF NOT EXIST "%STEAMLIBRARY%\steamapps\workshop\content\%APPID%" GOTO APPDATA

SET MODPATH=%STEAMLIBRARY%\steamapps\workshop\content\%APPID%\%MODID%\
IF EXIST "%MODPATH%" GOTO WORK

:APPDATA
SET MODPATH=%LOCALAPPDATA%\Colossal Order\Cities_Skylines\Addons\Mods\%SOLUTIONNAME%\
IF NOT EXIST "%MODPATH%" MKDIR "%MODPATH%"

:WORK

IF NOT EXIST "%MODPATH%" GOTO END
IF NOT EXIST "%TARGETFILENAME%" GOTO END

IF EXIST "%MODPATH%%TARGETFILENAME%" del "%MODPATH%%TARGETFILENAME%"
xcopy /y "%TARGETFILENAME%" "%MODPATH%"

:END
